%%%%%%%%%%%%%%%%%%%%%%%%%%%%%%%%%%%%%%%%%%%%%%%%%%%%%%%%%%%%%%%%%%%%%%%%%%%%%%%%
%                                                                              
% SU2 configuration file                                                       
% Case description: Simulation number 21
% Author: Kathrin Feige
% Institution: TU Kaiserslautern
% Date and Time: Fri Jan 20 13:48:04 2017
% File Version 4.1.1 Cardinal 
%
%%%%%%%%%%%%%%%%%%%%%%%%%%%%%%%%%%%%%%%%%%%%%%%%%%%%%%%%%%%%%%%%%%%%%%%%%%%%%%%%

% ------------- DIRECT, ADJOINT, AND LINEARIZED PROBLEM DEFINITION ------------%
PHYSICAL_PROBLEM= NAVIER_STOKES
KIND_TURB_MODEL= SA
MATH_PROBLEM= DIRECT
RESTART_SOL= NO
REGIME_TYPE= INCOMPRESSIBLE
SYSTEM_MEASUREMENTS= SI
% -------------------- INCOMPRESSIBLE FREE-STREAM DEFINITION --------------------%
FREESTREAM_DENSITY= 1.2886
FREESTREAM_VELOCITY= ( 5, 0.00, 0.00 )
FREESTREAM_VISCOSITY= 1.853E-5

% ------------------------- UNSTEADY SIMULATION -------------------------------%
UNSTEADY_SIMULATION= NO

% -------------------- BOUNDARY CONDITION DEFINITION --------------------------%
MARKER_EULER= ( NONE )
MARKER_HEATFLUX= (Surface, 0.0)
MARKER_ISOTHERMAL= ( NONE )
MARKER_FAR= ( Farfield )
MARKER_SYM= ( NONE )
MARKER_NEARFIELD= ( NONE )
MARKER_INTERFACE= ( NONE )
MARKER_ACTDISK= ( NONE )
INLET_TYPE= TOTAL_CONDITIONS
MARKER_INLET= ( NONE )
MARKER_SUPERSONIC_INLET= ( NONE )
MARKER_OUTLET= ( NONE )
MARKER_SUPERSONIC_OUTLET= ( NONE )
MARKER_PERIODIC= ( NONE )
MARKER_NORMAL_DISPL= ( NONE )
MARKER_NORMAL_LOAD= ( NONE )
MARKER_PRESSURE= ( NONE )
MARKER_NEUMANN= ( NONE )
MARKER_DIRICHLET= ( NONE )
MARKER_RIEMANN= ( NONE )
%MARKER_NRBC= ( NONE )

% ------------------------ SURFACES IDENTIFICATION ----------------------------%
MARKER_PLOTTING = ( Surface )
MARKER_MONITORING = ( NONE )
MARKER_DESIGNING = ( NONE )
ARTCOMP_FACTOR= 0.1
% ------------- COMMON PARAMETERS DEFINING THE NUMERICAL METHOD ---------------%
NUM_METHOD_GRAD= WEIGHTED_LEAST_SQUARES
CFL_NUMBER= 100
CFL_ADAPT= NO
MAX_DELTA_TIME= 1E6
RK_ALPHA_COEFF= ( 0.66667, 0.66667, 1.000000 )

% ------------------------ LINEAR SOLVER DEFINITION ---------------------------%
LINEAR_SOLVER= FGMRES
LINEAR_SOLVER_PREC= LU_SGS
LINEAR_SOLVER_ERROR= 1E-4
LINEAR_SOLVER_ITER= 5

% -------------------------- MULTIGRID PARAMETERS -----------------------------%
MGLEVEL= 0
MGCYCLE= V_CYCLE
MG_PRE_SMOOTH= ( 1, 2, 3, 3 )
MG_POST_SMOOTH= ( 0, 0, 0, 0 )
MG_CORRECTION_SMOOTH= ( 0, 0, 0, 0 )
MG_DAMP_RESTRICTION= 0.75
MG_DAMP_PROLONGATION= 0.75

% -------------------- FLOW NUMERICAL METHOD DEFINITION -----------------------%
CONV_NUM_METHOD_FLOW= ROE
SPATIAL_ORDER_FLOW= 1ST_ORDER
SLOPE_LIMITER_FLOW= VENKATAKRISHNAN
ENTROPY_FIX_COEFF= 0.001
AD_COEFF_FLOW= ( 0.15, 0.5, 0.02 )
VISCOUS_LIMITER_FLOW= NO
TIME_DISCRE_FLOW= EULER_IMPLICIT
RELAXATION_FACTOR_FLOW= 0.7

% -------------------- TURBULENT NUMERICAL METHOD DEFINITION ------------------%
CONV_NUM_METHOD_TURB= SCALAR_UPWIND
SPATIAL_ORDER_TURB= 1ST_ORDER
SLOPE_LIMITER_TURB= VENKATAKRISHNAN
VISCOUS_LIMITER_TURB= NO
TIME_DISCRE_TURB= EULER_IMPLICIT
CFL_REDUCTION_TURB= 1.0
RELAXATION_FACTOR_TURB= 0.5

% ------------------------- GRID ADAPTATION STRATEGY --------------------------%
KIND_ADAPT= NONE

% --------------------------- CONVERGENCE PARAMETERS --------------------------%
EXT_ITER= 10000
CONV_CRITERIA= RESIDUAL
RESIDUAL_REDUCTION= 5
RESIDUAL_MINVAL= -6
STARTCONV_ITER= 10
CAUCHY_ELEMS= 100
CAUCHY_EPS= 1E-10
CAUCHY_FUNC_FLOW= DRAG
CAUCHY_FUNC_ADJFLOW= SENS_GEOMETRY

% ------------------------- INPUT/OUTPUT INFORMATION --------------------------%
MESH_FILENAME= Mesh_1.su2
MESH_FORMAT= SU2
MESH_OUT_FILENAME= mesh1_out.su2
SOLUTION_FLOW_FILENAME= solution1_flow.dat
SOLUTION_ADJ_FILENAME= solution1_adj.dat
OUTPUT_FORMAT= PARAVIEW
CONV_FILENAME= history1
BREAKDOWN_FILENAME= forces1_breakdown.dat
RESTART_FLOW_FILENAME= restart1_flow.dat
RESTART_ADJ_FILENAME= restart1_adj.dat
VOLUME_FLOW_FILENAME= flow1
VOLUME_ADJ_FILENAME= adjoint1
VALUE_OBJFUNC_FILENAME= of_eval1.dat
GRAD_OBJFUNC_FILENAME= of_grad1.dat
SURFACE_FLOW_FILENAME= surface_flow1
SURFACE_ADJ_FILENAME= surface_adjoint1
WRT_SOL_FREQ= 100
WRT_SOL_FREQ_DUALTIME= 1
WRT_CON_FREQ= 1
WRT_CON_FREQ_DUALTIME= 10
WRT_RESIDUALS= YES
WRT_LIMITERS= NO
WRT_SHARPEDGES= NO
LOW_MEMORY_OUTPUT= NO
CONSOLE_OUTPUT_VERBOSITY= HIGH

